examples/national_grid/data/ireland/models/2008/wp2009.raw
<!DOCTYPE HTML PUBLIC "-//W3C//DTD HTML 4.0 Transitional//EN">
<!-- saved from url=(0082)http://www.eirgrid.com/EirgridPortal/uploads/Publications/Winter%20Peak%202009.raw -->
<HTML><HEAD>
<META http-equiv=Content-Type content="text/html; charset=windows-1252">
<META content="MSHTML 6.00.2900.3492" name=GENERATOR></HEAD>
<BODY><PRE>0,   100.00          / PSS/E-30.3    WED, NOV 26 2008  11:34
/ CASE: 2009/2010;  WINTER 01/12/2009; FORECAST STATEMENT 20
/ FS08_SEP08 - MEMO  GALLERY_T;  14:43:33  TUESDAY, SEPTEMBE
    10,'F_M_____    ',  38.0000,1,     0.000,     0.000,   1,   3,1.02537, -14.7280,   2
    11,'FMN_LOOP    ',  38.0000,1,     0.000,     0.000,   1,   1,1.03469, -17.3030,   2
    12,'BEDFORD     ',  38.0000,1,     0.000,     0.000,   1,   1,1.05421, -13.5382,   2
    13,'M_R_____    ',  38.0000,1,     0.000,     0.000,   1,   1,1.04902, -13.6567,   2
    14,'F_I_____    ',  38.0000,1,     0.000,     0.000,   1,   3,1.03659, -12.4207,   2
    15,'I_M_____    ',  38.0000,1,     0.000,     0.000,   1,   1,1.02993, -12.2257,   2
  1021,'ARDNACRU    ', 110.0000,1,     0.000,     0.000,   4,   1,1.04796,  -5.8822,   1
  1041,'AGHADA      ', 110.0000,1,     0.000,     0.000,   3,   1,1.03734,  -6.9261,   1
  1042,'AGHADA      ', 220.0000,1,     0.000,     0.000,   3,   1,1.07459,   5.6606,   1
  1052,'AGHADA2     ', 220.0000,1,     0.000,     0.000,   3,   1,1.07500,   0.8637,   1
  1061,'ARIGNA      ', 110.0000,1,     0.000,     0.000,   9,   1,1.05857,  -8.5584,   2
  1062,'AGHADA3     ', 220.0000,1,     0.000,     0.000,   3,   1,1.07500,   0.8637,   1
  1071,'AGANNYGA    ', 110.0000,1,     0.000,     0.000,   4,   1,1.06680,  -6.1546,   1
  1072,'AGHADA4     ', 220.0000,1,     0.000,     0.000,   3,   1,1.07457,   5.6608,   1
  1081,'AHANE       ', 110.0000,1,     0.000,     0.000,   7,   1,1.04877,  -5.5417,   2
  1091,'ADAMSTOW    ', 110.0000,1,     0.000,     0.000,   1,   1,1.05572,  -8.8492,   2
  1101,'ANNER       ', 110.0000,1,     0.000,     0.000,   5,   3,1.04668, -13.1020,   5
  1121,'ARKLOW      ', 110.0000,1,     0.000,     0.000,   6,   1,1.07313, -10.8903,   1
  1122,'ARKLOW      ', 220.0000,1,     0.000,     0.000,   6,   1,1.05406,  -7.7368,   1
  1131,'ATHEA       ', 110.0000,1,     0.000,     0.000,   7,   5,1.07511,   0.4512,   4
  1141,'ATHLONE     ', 110.0000,1,     0.000,     0.000,   9,   1,1.06398,  -9.0855,   1
  1161,'AUGHINIS    ', 110.0000,1,     0.000,     0.000,   7,   3,1.07500,   0.4741,   1
  1181,'ARVA        ', 110.0000,1,     0.000,     0.000,  10,   1,1.04691, -10.8119,   1
  1201,'ARTANE      ', 110.0000,1,     0.000,     0.000,   1,   1,1.03977,  -8.6602,   2
  1221,'ATHY        ', 110.0000,1,     0.000,     0.000,   8,   1,1.03593, -10.9765,   1
  1231,'BALLYWAT    ', 110.0000,1,     0.000,     0.000,   6,   1,1.05813, -13.3292,   4
  1251,'BOOLTIAG    ', 110.0000,1,     0.000,     0.000,   4,   1,1.03867,  -6.5456,   2
  1271,'BALTRASN    ', 110.0000,1,     0.000,     0.000,  10,   1,1.03722,  -9.2735,   1
  1281,'BALLYLIC    ', 110.0000,1,     0.000,     0.000,   3,   1,1.02665,  -7.4005,   2
  1301,'BALLYBEG    ', 110.0000,1,     0.000,     0.000,   6,   1,1.06694, -11.6654,   1
  1321,'BLAKE       ', 110.0000,1,     0.000,     0.000,   8,   1,1.02532, -10.5744,   2
  1341,'BINBANE     ', 110.0000,1,     0.000,     0.000,   9,   1,1.02502,  -8.6370,   2
  1351,'BARODA      ', 110.0000,1,     0.000,     0.000,   8,   1,1.02946, -11.1754,   1
  1361,'BALLYDIN    ', 110.0000,1,     0.000,     0.000,   5,   1,1.04952, -12.5724,   1
  1381,'BARNAHEL    ', 110.0000,1,     0.000,     0.000,   3,   1,1.04880,  -7.0230,   1
  1401,'BELLACOR    ', 110.0000,1,     0.000,     0.000,   9,   1,1.05239, -12.7062,   1
  1421,'BLACKROC    ', 110.0000,1,     0.000,     0.000,   1,   2,1.07177, -11.3004,   2
  1441,'BANDON      ', 110.0000,1,     0.000,     0.000,   3,   1,1.03605,  -8.0762,   1
  1461,'BARRYMOR    ', 110.0000,1,     0.000,     0.000,   5,   1,1.04247,  -8.3197,   2
  1481,'BUTLERST    ', 110.0000,1,     0.000,     0.000,   5,   1,1.05543, -11.7313,   1
  1501,'BRINNY      ', 110.0000,1,     0.000,     0.000,   3,   1,1.03591,  -8.0848,   5
  1511,'BRINNY      ', 110.0000,1,     0.000,     0.000,   3,   1,1.03591,  -8.0844,   5
  1541,'BANOGE      ', 110.0000,1,     0.000,     0.000,   6,   1,1.05768, -12.3538,   1
  1581,'CABRA       ', 110.0000,1,     0.000,     0.000,   1,   2,1.03839,  -8.7482,   2
  1601,'CLASHAVO    ', 110.0000,1,     0.000,     0.000,   3,   1,1.05825,  -4.1869,   1
  1602,'CLASHAVO    ', 220.0000,1,     0.000,     0.000,   3,   1,1.06257,   1.0973,   1
  1611,'CLONKEEN    ', 110.0000,1,     0.000,     0.000,   7,   1,1.06916,  -3.0222,   1
  1621,'COOLROE     ', 110.0000,1,     0.000,     0.000,   3,   1,1.04498,  -6.2602,   1
  1631,'CORDERRY    ', 110.0000,1,     0.000,     0.000,   9,   1,1.06217,  -8.3324,   1
  1641,'CASHLA      ', 110.0000,1,     0.000,     0.000,   9,   1,1.06453,  -5.2551,   1
  1642,'CASHLA      ', 220.0000,1,     0.000,     0.000,   9,   1,1.06324,  -1.0593,   1
  1651,'CLAHANE     ', 110.0000,1,     0.000,     0.000,   7,   5,1.07500,  -0.5043,   1
  1661,'CASTLEBA    ', 110.0000,1,     0.000,     0.000,   9,   1,1.05763, -12.2681,   1
  1681,'CARRIGAD    ', 110.0000,1,     0.000,     0.000,   3,   1,1.05330,  -5.2453,   1
  1691,'CENTRAL     ', 110.0000,1,     0.000,     0.000,   1,   1,1.07306, -11.1646,   1
  1701,'CATH_FAL    ', 110.0000,1,     0.000,     0.000,   9,   1,1.05000,  -8.4804,   1
  1711,'CROMCAST    ', 110.0000,1,     0.000,     0.000,   1,   1,1.05798,  -8.1441,   1
  1721,'CAHIR       ', 110.0000,1,     0.000,     0.000,   5,   1,1.05521, -12.4080,   1
  1731,'CROMCAST    ', 110.0000,1,     0.000,     0.000,   1,   1,1.05798,  -8.1441,   1
  1741,'CARRICKM    ', 110.0000,1,     0.000,     0.000,   2,   2,1.07320, -11.1530,   2
  1742,'CARRICKM    ', 220.0000,1,     0.000,     0.000,   2,   2,1.06881,  -5.7098,   1
  1751,'CARRICKM    ', 110.0000,1,     0.000,     0.000,   2,   1,1.06881,  -5.7098,   1
  1761,'CLIFF       ', 110.0000,1,     0.000,     0.000,   9,   1,1.05010,  -8.2731,   1
  1781,'CASTLEFA    ', 110.0000,1,     0.000,     0.000,   7,   3,1.07464,   0.4565,   5
  1791,'CASTLEFA    ', 110.0000,1,     0.000,     0.000,   7,   3,1.07463,   0.4554,   5
  1801,'COOKSTOW    ', 110.0000,1,     0.000,     0.000,   1,   2,1.05553,  -8.2780,   2
  1811,'COOKSTOW    ', 110.0000,1,     0.000,     0.000,   1,   1,1.06062, -12.0181,   1
  1821,'CLOON       ', 110.0000,1,     0.000,     0.000,   9,   1,1.05943,  -7.9808,   1
  1841,'CRANE       ', 110.0000,1,     0.000,     0.000,   6,   1,1.05198, -13.4622,   1
  1851,'CHERRYWO    ', 110.0000,1,     0.000,     0.000,   2,   1,1.07131, -11.2462,   1
  1861,'CARICKON    ', 110.0000,1,     0.000,     0.000,   9,   1,1.05754,  -8.8852,   1
  1871,'COLLEGE     ', 110.0000,1,     0.000,     0.000,   2,   1,1.05240,  -7.5932,   1
  1881,'CHARLEVI    ', 110.0000,1,     0.000,     0.000,   3,   1,1.01699,  -7.0780,   1
  1901,'CARLOW      ', 110.0000,1,     0.000,     0.000,   6,   1,1.04991, -10.6179,   1
  1921,'COW CROS    ', 110.0000,1,     0.000,     0.000,   3,   1,1.04357,  -6.9364,   1
  1931,'CUNGHILL    ', 110.0000,1,     0.000,     0.000,   9,   1,1.06177, -10.6043,   4
  1941,'CUSHALIN    ', 110.0000,1,     0.000,     0.000,   8,   1,1.06872,  -8.9542,   1
  1961,'CASTLEVI    ', 110.0000,1,     0.000,     0.000,   3,   1,1.04292,  -6.3362,   1
  1971,'COOMAGEA    ', 110.0000,1,     0.000,     0.000,   7,   1,1.07122,  -2.7752,   4
  1981,'CORRACLA    ', 110.0000,1,     0.000,     0.000,   9,   1,1.05368, -10.6807,   1
  2001,'CULLENAG    ', 110.0000,1,     0.000,     0.000,   5,   1,1.06411, -11.0202,   1
  2002,'CULLENAG    ', 220.0000,1,     0.000,     0.000,   5,   1,1.04683,  -7.6349,   1
  2021,'CITY WES    ', 110.0000,1,     0.000,     0.000,   1,   1,1.05473,  -8.3181,   2
  2031,'CHARLESL    ', 110.0000,1,     0.000,     0.000,   6,   1,1.06488, -11.8312,   1
  2041,'CORDUFF     ', 110.0000,1,     0.000,     0.000,   2,   1,1.05320,  -7.5011,   1
  2042,'CORDUFF     ', 220.0000,1,     0.000,     0.000,   2,   1,1.07477,  -3.4971,   1
  2051,'CORDUFF     ', 110.0000,1,     0.000,     0.000,   2,   1,1.05320,  -7.5011,   1
  2081,'DUNKETTL    ', 110.0000,4,     0.000,     0.000,   3,   1,1.00000,   0.0000,   5
  2101,'DUNDALK     ', 110.0000,1,     0.000,     0.000,  10,   1,1.04839, -10.1871,   2
  2121,'DRUMLINE    ', 110.0000,1,     0.000,     0.000,   4,   1,1.03783,  -6.9437,   1
  2141,'DUNGARVA    ', 110.0000,1,     0.000,     0.000,   5,   1,1.03966, -10.1051,   1
  2161,'DOON        ', 110.0000,1,     0.000,     0.000,   5,   1,1.04725, -13.0684,   1
  2181,'DRYBRIDG    ', 110.0000,1,     0.000,     0.000,  10,   1,1.02702, -10.7210,   1
  2202,'DUNSTOWN    ', 220.0000,1,     0.000,     0.000,   2,   7,1.07296,  -4.4271,   1
  2204,'DUNSTOWN    ', 380.0000,1,     0.000,     0.000,   2,   1,1.02182,  -0.0584,   1
  2221,'DUNMANWA    ', 110.0000,1,     0.000,     0.000,   3,   1,1.03445,  -7.4094,   1
  2231,'DERRYBRI    ', 110.0000,1,     0.000,     0.000,   4,   1,1.07094,  -5.9094,   2
  2241,'DALLOW      ', 110.0000,1,     0.000,     0.000,   5,   1,1.05690,  -7.7503,   2
  2251,'DARDISTO    ', 110.0000,1,     0.000,     0.000,   1,   1,1.05926,  -8.0825,   1
  2261,'DERRYIRO    ', 110.0000,1,     0.000,     0.000,   8,   1,1.04273,  -9.6651,   1
  2281,'DALTON      ', 110.0000,1,     0.000,     0.000,   9,   1,1.05532, -10.7048,   1
  2301,'DUNFIRTH    ', 110.0000,1,     0.000,     0.000,   8,   1,1.04292,  -9.1119,   2
  2321,'DRUMKEEN    ', 110.0000,1,     0.000,     0.000,   9,   1,1.04475,  -9.2111,   1
  2361,'ENNIS       ', 110.0000,1,     0.000,     0.000,   4,   1,1.03842,  -6.8811,   1
  2481,'FASS EAS    ', 110.0000,1,     0.000,     0.000,   2,   2,1.06571, -11.5338,   2
  2491,'FASS WES    ', 110.0000,1,     0.000,     0.000,   2,   2,1.06607, -11.5152,   2
  2521,'FLAGFORD    ', 110.0000,1,     0.000,     0.000,   9,   1,1.05910,  -8.7553,   1
  2522,'FLAGFORD    ', 220.0000,1,     0.000,     0.000,   9,   7,1.05820,  -6.2246,   1
  2541,'FRN ST A    ', 110.0000,1,     0.000,     0.000,   1,   2,1.06123,  -9.5165,   2
  2551,'FRN ST B    ', 110.0000,1,     0.000,     0.000,   1,   2,1.05537,  -8.2726,   2
  2561,'FIN_URBA    ', 110.0000,1,     0.000,     0.000,   2,   2,1.04301,  -8.4297,   1
  2562,'FINGLAS     ', 220.0000,1,     0.000,     0.000,   2,   7,1.07500,  -3.5977,   1
  2571,'FIN_RURA    ', 110.0000,1,     0.000,     0.000,   2,   2,1.05958,  -7.9750,   1
  2581,'FIN_SUBU    ', 110.0000,1,     0.000,     0.000,   2,   1,1.05227,  -7.6219,   1
  2591,'FIN_OPEN    ', 110.0000,1,     0.000,     0.000,   2,   1,1.07500,  -3.5977,   2
  2671,'GARVAGH     ', 110.0000,1,     0.000,     0.000,   9,   1,1.06725,  -8.1454,   4
  2681,'GILRA       ', 110.0000,1,     0.000,     0.000,   9,   3,1.06031,  -9.0515,   2
  2701,'GLASMORE    ', 110.0000,1,     0.000,     0.000,   1,   2,1.03683,  -8.9760,   2
  2721,'GRIFFINR    ', 110.0000,1,     0.000,     0.000,   2,   2,1.04792,  -9.0012,   2
  2731,'GLANLEE     ', 110.0000,1,     0.000,     0.000,   7,   5,1.07129,  -2.7586,   4
  2741,'GREAT IS    ', 110.0000,1,     0.000,     0.000,   6,   1,1.06531, -11.3127,   1
  2742,'GREAT IS    ', 220.0000,1,     0.000,     0.000,   6,   7,1.05542,  -7.8171,   1
  2761,'GRANGE      ', 110.0000,1,     0.000,     0.000,   1,   2,1.05678,  -8.2006,   2
  2771,'GARROW      ', 110.0000,1,     0.000,     0.000,   7,   1,1.07230,  -2.9571,   7
  2781,'GALWAY      ', 110.0000,1,     0.000,     0.000,   9,   1,1.04651,  -5.9636,   1
  2801,'GOLAGH      ', 110.0000,1,     0.000,     0.000,   9,   1,1.04663,  -8.7840,   4
  2821,'GORTAWEE    ', 110.0000,1,     0.000,     0.000,   9,   1,1.05071, -11.1409,   1
  2841,'GORMAN      ', 110.0000,1,     0.000,     0.000,  10,   1,1.03634, -10.5729,   1
  2842,'GORMAN      ', 220.0000,1,     0.000,     0.000,  10,   1,1.05239,  -7.1374,   1
  2852,'GLANAGOW    ', 220.0000,1,     0.000,     0.000,   3,   1,1.07677,   1.1392,   1
  2861,'GRANGE C    ', 110.0000,1,     0.000,     0.000,   1,   1,1.05473,  -8.9160,   2
  2881,'GLENLARA    ', 110.0000,1,     0.000,     0.000,   3,   1,1.00749,  -6.8667,   2
  2941,'HAROLDS     ', 110.0000,1,     0.000,     0.000,   1,   2,1.06141,  -9.4979,   2
  2951,'HEUSTON     ', 110.0000,1,     0.000,     0.000,   1,   1,1.05575,  -8.2543,   1
  2962,'HUNTSTOW    ', 220.0000,1,     0.000,     0.000,   2,   1,1.07556,  -3.4979,   4
  2972,'HUNTSTOW    ', 220.0000,1,     0.000,     0.000,   2,   1,1.07600,  -3.1442,   4
  2981,'HARNETTS    ', 110.0000,1,     0.000,     0.000,   3,   1,1.05264,  -5.2707,   2
  3061,'INISCARR    ', 110.0000,1,     0.000,     0.000,   3,   1,1.04787,  -6.0661,   1
  3081,'INCH_CIT    ', 110.0000,1,     0.000,     0.000,   1,   2,1.05642,  -8.2085,   2
  3082,'INCHICOR    ', 220.0000,1,     0.000,     0.000,   2,   2,1.07306,  -5.8917,   1
  3091,'INCH_COU    ', 110.0000,1,     0.000,     0.000,   1,   1,1.05964,  -8.5007,   2
  3101,'IKERRIN     ', 110.0000,1,     0.000,     0.000,   5,   1,1.04134, -12.2334,   2
  3122,'IRISHTOW    ', 220.0000,1,     0.000,     0.000,   2,   1,1.07500,  -5.0405,   1
  3201,'KNOCKRAH    ', 110.0000,1,     0.000,     0.000,   3,   1,1.04670,  -5.8162,   1
  3202,'KNOCKRAH    ', 220.0000,1,     0.000,     0.000,   3,   7,1.06001,   1.8305,   1
  3212,'KNOCKRAH    ', 220.0000,1,     0.000,     0.000,   3,   1,1.05056,  -3.0351,   1
  3221,'KILBARRY    ', 110.0000,1,     0.000,     0.000,   3,   1,1.03410,  -7.0216,   1
  3241,'KILTEEL     ', 110.0000,1,     0.000,     0.000,   8,   1,1.03844, -10.9489,   2
  3261,'KILKENNY    ', 110.0000,1,     0.000,     0.000,   6,   1,1.02755, -13.4715,   1
  3281,'KILLONAN    ', 110.0000,1,     0.000,     0.000,   7,   1,1.04921,  -5.5025,   1
  3282,'KILLONAN    ', 220.0000,1,     0.000,     0.000,   7,   7,1.05028,  -1.1717,   1
  3301,'KNOCKERA    ', 110.0000,1,     0.000,     0.000,   7,   1,1.05623,  -3.3720,   1
  3321,'KNOCKUMB    ', 110.0000,1,     0.000,     0.000,  10,   3,1.02753, -11.2925,   5
  3341,'KELLIS      ', 110.0000,1,     0.000,     0.000,   6,   1,1.05552, -10.4641,   1
  3342,'KELLIS      ', 220.0000,1,     0.000,     0.000,   6,   1,1.04958,  -7.3191,   1
  3361,'KILTOY      ', 110.0000,1,     0.000,     0.000,   9,   3,1.04033,  -9.7551,   5
  3381,'KINNEGAD    ', 110.0000,1,     0.000,     0.000,   8,   1,1.04081,  -9.6627,   1
  3401,'KILLOTER    ', 110.0000,1,     0.000,     0.000,   5,   1,1.05715, -11.6992,   1
  3421,'KILMORE     ', 110.0000,1,     0.000,     0.000,   1,   1,1.05796,  -8.1437,   2
  3431,'KILMAHUD    ', 110.0000,1,     0.000,     0.000,   1,   1,1.05445,  -8.9328,   1
  3501,'LANESBOR    ', 110.0000,1,     0.000,     0.000,   9,   1,1.06678,  -8.7386,   1
  3521,'LOUTH       ', 110.0000,1,     0.000,     0.000,  10,   1,1.07089,  -9.3532,   1
  3522,'LOUTH       ', 220.0000,1,     0.000,     0.000,  10,   7,1.05152,  -6.6238,   1
  3541,'LIMERICK    ', 110.0000,1,     0.000,     0.000,   7,   1,1.04385,  -5.2417,   1
  3561,'LISDRUM     ', 110.0000,1,     0.000,     0.000,  10,   1,1.06401, -11.7908,   1
  3572,'LONGPOIN    ', 220.0000,1,     0.000,     0.000,   3,   1,1.07500,   5.7283,   1
  3581,'LETTERKE    ', 110.0000,1,     0.000,     0.000,   9,   1,1.04032,  -9.7548,   1
  3601,'LIBERTY     ', 110.0000,1,     0.000,     0.000,   3,   1,1.03459,  -7.2833,   2
  3611,'LIBERTY     ', 110.0000,1,     0.000,     0.000,   3,   1,1.03492,  -7.2765,   2
  3621,'LISHEEN     ', 110.0000,1,     0.000,     0.000,   5,   1,1.04066, -14.1648,   5
  3751,'MISERY H    ', 110.0000,1,     0.000,     0.000,   1,   1,1.06197,  -9.4416,   2
  3761,'MACETOWN    ', 110.0000,1,     0.000,     0.000,   1,   2,1.05136,  -7.6699,   1
  3781,'MCDERMOT    ', 110.0000,1,     0.000,     0.000,   1,   2,1.03855,  -8.7350,   2
  3801,'MIDLETON    ', 110.0000,1,     0.000,     0.000,   3,   1,1.03468,  -6.6191,   1
  3821,'MEATH HI    ', 110.0000,1,     0.000,     0.000,  10,   1,1.04573, -10.2978,   2
  3841,'MAYNOOTH    ', 110.0000,1,     0.000,     0.000,   2,   2,1.05056,  -8.8577,   1
  3842,'MAYNOOTH    ', 220.0000,1,     0.000,     0.000,   2,   7,1.06640,  -5.9365,   1
  3851,'MAYNOOTH    ', 110.0000,1,     0.000,     0.000,   2,   2,1.05188,  -7.9423,   1
  3852,'MAYNOOTH    ', 220.0000,1,     0.000,     0.000,   2,   2,1.07008,  -5.1098,   1
  3861,'MILLTOWN    ', 110.0000,1,     0.000,     0.000,   1,   2,1.06270,  -9.3736,   2
  3871,'MILLTOWN    ', 110.0000,1,     0.000,     0.000,   1,   2,1.05268,  -8.4280,   2
  3881,'MACROOM     ', 110.0000,1,     0.000,     0.000,   3,   1,1.05356,  -5.2014,   1
  3901,'MONETEEN    ', 110.0000,1,     0.000,     0.000,   7,   1,1.04741,  -4.2239,   1
  3934,'MNYPG1      ', 380.0000,1,     0.000,     6.000,   4,   1,1.07500,   6.7387,   1
  3941,'MONEYPOI    ', 110.0000,1,     0.000,     0.000,   4,   1,1.03391,  -6.3276,   1
  3942,'MONEYPOI    ', 220.0000,1,     0.000,     0.000,   7,   1,1.08436,   4.7127,   1
  3944,'MNYPG3      ', 380.0000,1,     0.000,     6.000,   4,   1,1.07500,   6.7387,   1
  3954,'MNYPG2      ', 380.0000,1,     0.000,     6.000,   7,   1,1.07500,   8.9395,   1
  3961,'MARINA      ', 110.0000,1,     0.000,     0.000,   3,   1,1.03505,  -7.2656,   1
  3981,'MUNGRET     ', 110.0000,1,     0.000,     0.000,   7,   3,1.04716,  -4.2379,   5
  3991,'MUNGRET     ', 110.0000,1,     0.000,     0.000,   7,   3,1.04717,  -4.2372,   5
  4001,'MULLINGA    ', 110.0000,1,     0.000,     0.000,   9,   1,1.02043, -10.4920,   1
  4021,'MALLOW      ', 110.0000,1,     0.000,     0.000,   3,   1,1.01785,  -7.3892,   1
  4041,'MOY         ', 110.0000,1,     0.000,     0.000,   9,   1,1.05171, -12.9055,   1
  4061,'MULLAGHA    ', 110.0000,1,     0.000,     0.000,  10,   1,1.05251, -10.1029,   2
  4071,'MEENTYCA    ', 110.0000,1,     0.000,     0.000,   9,   1,1.04684,  -8.9416,   4
  4081,'MONREAD     ', 110.0000,1,     0.000,     0.000,   8,   1,1.03240, -11.1968,   1
  4201,'NEWBRIDG    ', 110.0000,1,     0.000,     0.000,   8,   1,1.02986, -10.9679,   1
  4211,'NORTH QU    ', 110.0000,1,     0.000,     0.000,   1,   1,1.06305,  -9.3516,   2
  4221,'NAVAN       ', 110.0000,1,     0.000,     0.000,  10,   1,1.03177, -11.0675,   1
...
0 / END OF BUS DATA, BEGIN LOAD DATA
    10,'LD',1,   1,   1,    79.610,    20.110,     0.000,     0.000,     0.000,     0.000,   2
    11,'LD',1,   1,   1,   115.140,    26.050,     0.000,     0.000,     0.000,     0.000,   2
    12,'LD',1,   1,   1,    51.780,     2.930,     0.000,     0.000,     0.000,     0.000,   2
    13,'LD',1,   1,   1,    55.260,    21.060,     0.000,     0.000,     0.000,     0.000,   2
    14,'LD',1,   1,   1,    57.250,    26.430,     0.000,     0.000,     0.000,     0.000,   2
    15,'LD',1,   1,   1,    62.640,    34.550,     0.000,     0.000,     0.000,     0.000,   2
  1041,'LD',1,   3,   1,     1.590,     0.520,     0.000,     0.000,     0.000,     0.000,   2
  1101,'DM',1,   5,   2,    11.000,     3.840,     0.000,     0.000,     0.000,     0.000,   5
  1101,'MI',0,   5,   2,     5.620,     1.680,     0.000,     0.000,     0.000,     0.000,   5
  3621,'DM',1,   5,   2,    19.000,     6.200,     0.000,     0.000,     0.000,     0.000,   5
  4341,'DM',1,   3,   2,     0.280,     0.100,     0.000,     0.000,     0.000,     0.000,   5
 10204,'LD',1,   4,   1,    12.220,     7.540,     0.000,     0.000,     0.000,     0.000,   2
 10205,'LD',1,   4,   1,    74.540,    31.860,     0.000,     0.000,     0.000,     0.000,   2
 10471,'HL',0,   3,   1,     5.550,     1.990,     0.000,     0.000,     0.000,     0.000,   3
 10475,'HL',0,   3,   1,     0.300,     0.100,     0.000,     0.000,     0.000,     0.000,   3
 10602,'LD',1,   9,   1,     5.930,     1.950,     0.000,     0.000,     0.000,     0.000,   2
 10801,'LD',1,   7,   1,     6.630,     1.610,     0.000,     0.000,     0.000,     0.000,   2
 10901,'LD',1,   1,   1,     6.910,     2.250,     0.000,     0.000,     0.000,     0.000,   2
 11201,'LD',1,   6,   1,     2.350,     0.640,     0.000,     0.000,     0.000,     0.000,   2
 11204,'LD',1,   6,   1,    33.920,    12.960,     0.000,     0.000,     0.000,     0.000,   2
 11404,'LD',1,   9,   1,    71.340,    20.440,     0.000,     0.000,     0.000,     0.000,   2
 12001,'LD',1,   1,   1,    18.380,     5.620,     0.000,     0.000,     0.000,     0.000,   2
 12202,'LD',1,   8,   1,    20.010,     6.580,     0.000,     0.000,     0.000,     0.000,   2
 12702,'DM',1,  10,   2,     6.000,     2.000,     0.000,     0.000,     0.000,     0.000,   5
 12702,'LD',1,  10,   1,    16.050,     4.280,     0.000,     0.000,     0.000,     0.000,   2
 12804,'LD',1,   3,   1,    12.850,     4.330,     0.000,     0.000,     0.000,     0.000,   2
 13001,'LD',1,   6,   1,    15.520,     3.700,     0.000,     0.000,     0.000,     0.000,   2
 13204,'LD',1,   8,   1,    35.950,    18.190,     0.000,     0.000,     0.000,     0.000,   2
 13404,'LD',1,   9,   1,    25.550,    12.200,     0.000,     0.000,     0.000,     0.000,   2
 13501,'DM',1,   8,   2,    19.000,     5.900,     0.000,     0.000,     0.000,     0.000,   5
 13601,'DM',1,   5,   2,     5.900,     1.900,     0.000,     0.000,     0.000,     0.000,   5
 13601,'MI',0,   5,   2,     1.220,     0.360,     0.000,     0.000,     0.000,     0.000,   5
 13604,'LD',1,   5,   1,    12.410,     3.420,     0.000,     0.000,     0.000,     0.000,   2
 13802,'LD',1,   3,   1,    26.790,     7.610,     0.000,     0.000,     0.000,     0.000,   2
 13804,'LD',1,   3,   1,    23.520,     6.680,     0.000,     0.000,     0.000,     0.000,   2
 14002,'LD',1,   9,   1,     5.780,     2.180,     0.000,     0.000,     0.000,     0.000,   2
 14204,'LD',1,   1,   1,    38.950,     4.830,     0.000,     0.000,     0.000,     0.000,   2
 14401,'LD',1,   3,   1,    11.730,     3.850,     0.000,     0.000,     0.000,     0.000,   2
 14404,'LD',1,   3,   1,    21.620,     6.510,     0.000,     0.000,     0.000,     0.000,   2
 14604,'LD',1,   5,   1,    27.140,     6.460,     0.000,     0.000,     0.000,     0.000,   2
 14804,'LD',1,   5,   1,    51.150,    13.380,     0.000,     0.000,     0.000,     0.000,   2
 15001,'DM',1,   3,   2,     4.200,     1.400,     0.000,     0.000,     0.000,     0.000,   5
 15001,'MI',0,   3,   2,     1.970,     0.590,     0.000,     0.000,     0.000,     0.000,   5
 15402,'LD',1,   6,   1,    16.800,     5.520,     0.000,     0.000,     0.000,     0.000,   2
 15801,'LD',1,   1,   1,    19.410,     5.210,     0.000,     0.000,     0.000,     0.000,   2
 16202,'LD',1,   3,   1,    11.450,     3.330,     0.000,     0.000,     0.000,     0.000,   2
 16604,'LD',1,   9,   1,    61.450,    20.200,     0.000,     0.000,     0.000,     0.000,   2
 16901,'LD',1,   1,   1,     6.100,     2.140,     0.000,     0.000,     0.000,     0.000,   2
 17004,'LD',1,   9,   1,    18.000,     6.470,     0.000,     0.000,     0.000,     0.000,   2
 17204,'DM',1,   5,   2,     2.900,     1.000,     0.000,     0.000,     0.000,     0.000,   5
 17204,'LD',1,   5,   1,    24.010,     5.140,     0.000,     0.000,     0.000,     0.000,   2
 17404,'LD',1,   2,   1,    88.920,    18.390,     0.000,     0.000,     0.000,     0.000,   2
 17802,'DM',1,   7,   2,    44.000,    14.500,     0.000,     0.000,     0.000,     0.000,   5
 17802,'MI',0,   7,   2,     5.000,     1.500,     0.000,     0.000,     0.000,     0.000,   5
 18004,'LD',1,   1,   1,    83.100,    22.490,     0.000,     0.000,     0.000,     0.000,   2
 18204,'LD',1,   9,   1,    29.740,     9.770,     0.000,     0.000,     0.000,     0.000,   2
 18402,'LD',1,   6,   1,     5.600,     3.660,     0.000,     0.000,     0.000,     0.000,   2
 18404,'LD',1,   6,   1,    23.970,    10.200,     0.000,     0.000,     0.000,     0.000,   2
 18501,'LD',1,   2,   1,    28.460,     9.350,     0.000,     0.000,     0.000,     0.000,   2
 18604,'LD',1,   9,   1,    31.460,     8.350,     0.000,     0.000,     0.000,     0.000,   2
 18701,'DM',1,   2,   2,    22.800,     7.500,     0.000,     0.000,     0.000,     0.000,   5
 18701,'LD',1,   2,   1,    16.370,     3.400,     0.000,     0.000,     0.000,     0.000,   2
 18804,'LD',1,   3,   1,    24.150,    10.080,     0.000,     0.000,     0.000,     0.000,   2
 19004,'LD',1,   6,   1,    56.840,    19.160,     0.000,     0.000,     0.000,     0.000,   2
 19204,'LD',1,   3,   1,    22.040,     5.950,     0.000,     0.000,     0.000,     0.000,   2
 19471,'HL',1,   8,   2,     9.900,     3.560,     0.000,     0.000,     0.000,     0.000,   4
 19601,'LD',1,   3,   1,    20.380,     6.700,     0.000,     0.000,     0.000,     0.000,   2
 20201,'LD',1,   1,   1,    17.810,     6.600,     0.000,     0.000,     0.000,     0.000,   2
 20301,'DM',1,   6,   2,    25.000,     8.190,     0.000,     0.000,     0.000,     0.000,   5
 21004,'LD',1,  10,   1,    52.650,    28.580,     0.000,     0.000,     0.000,     0.000,   2
 21204,'LD',1,   4,   1,    33.060,    16.430,     0.000,     0.000,     0.000,     0.000,   2
 21404,'LD',1,   5,   1,    33.600,     8.030,     0.000,     0.000,     0.000,     0.000,   2
 21604,'LD',1,   5,   1,    36.380,     7.600,     0.000,     0.000,     0.000,     0.000,   2
 21804,'LD',1,  10,   1,    92.700,    27.050,     0.000,     0.000,     0.000,     0.000,   2
 22204,'LD',1,   3,   1,    39.600,    12.430,     0.000,     0.000,     0.000,     0.000,   2
 22404,'LD',1,   5,   1,    15.580,     5.130,     0.000,     0.000,     0.000,     0.000,   2
 22501,'LD',1,   1,   1,     7.240,     2.300,     0.000,     0.000,     0.000,     0.000,   2
 22671,'HL',0,   8,   1,     0.300,     0.100,     0.000,     0.000,     0.000,     0.000,   1
 22672,'HL',0,   8,   1,     0.300,     0.100,     0.000,     0.000,     0.000,     0.000,   1
 22804,'LD',1,   9,   1,    25.790,     8.030,     0.000,     0.000,     0.000,     0.000,   2
 23001,'LD',1,   8,   1,     7.060,     2.320,     0.000,     0.000,     0.000,     0.000,   2
 23601,'LD',1,   4,   1,    13.160,     4.390,     0.000,     0.000,     0.000,     0.000,   2
 23604,'LD',1,   4,   1,    44.730,    12.200,     0.000,     0.000,     0.000,     0.000,   2
 24804,'LD',1,   2,   1,    68.480,    19.490,     0.000,     0.000,     0.000,     0.000,   2
 25604,'LD',1,   2,   1,    79.780,    15.400,     0.000,     0.000,     0.000,     0.000,   2
 26802,'DM',1,   9,   2,    11.870,     3.900,     0.000,     0.000,     0.000,     0.000,   5
 27004,'LD',1,   1,   1,    57.450,    30.610,     0.000,     0.000,     0.000,     0.000,   2
 27204,'LD',1,   2,   1,    64.250,    21.840,     0.000,     0.000,     0.000,     0.000,   2
 27404,'LD',1,   6,   1,    25.220,     8.290,     0.000,     0.000,     0.000,     0.000,   2
 27471,'HL',1,   6,   1,     3.000,     1.080,     0.000,     0.000,     0.000,     0.000,   3
 27472,'HL',0,   6,   1,     3.000,     1.080,     0.000,     0.000,     0.000,     0.000,   3
 27473,'HL',1,   6,   1,     7.990,     2.870,     0.000,     0.000,     0.000,     0.000,   3
 27604,'LD',1,   1,   1,    62.490,    23.970,     0.000,     0.000,     0.000,     0.000,   2
 27801,'LD',1,   9,   1,    25.500,    10.600,     0.000,     0.000,     0.000,     0.000,   2
 27804,'LD',1,   9,   1,   139.120,    45.500,     0.000,     0.000,     0.000,     0.000,   2
 28201,'DM',1,   9,   2,    17.000,     5.600,     0.000,     0.000,     0.000,     0.000,   5
 28201,'MI',0,   9,   2,     3.890,     1.160,     0.000,     0.000,     0.000,     0.000,   5
 28204,'LD',1,   9,   1,    10.700,     3.210,     0.000,     0.000,     0.000,     0.000,   2
 28571,'HL',1,   3,   1,     2.390,     0.860,     0.000,     0.000,     0.000,     0.000,   1
 28601,'DM',1,   1,   2,     5.890,     1.900,     0.000,     0.000,     0.000,     0.000,   5
 28601,'LD',1,   1,   1,    -5.290,    -1.710,     0.000,     0.000,     0.000,     0.000,   2
 28604,'LD',1,   1,   1,    60.030,     5.780,     0.000,     0.000,     0.000,     0.000,   2
 28804,'LD',1,   3,   1,    12.950,     5.490,     0.000,     0.000,     0.000,     0.000,   2
 29401,'LD',1,   1,   1,    26.240,     8.620,     0.000,     0.000,     0.000,     0.000,   2
 29501,'LD',1,   1,   1,     6.100,     1.930,     0.000,     0.000,     0.000,     0.000,   2
 29672,'HL',1,   2,   2,     7.000,     2.520,     0.000,     0.000,     0.000,     0.000,   4
 29801,'LD',1,   3,   1,     9.530,     1.070,     0.000,     0.000,     0.000,     0.000,   2
 30804,'LD',1,   1,   1,    54.890,    20.330,     0.000,     0.000,     0.000,     0.000,   2
 31004,'LD',1,   5,   1,    30.270,     9.950,     0.000,     0.000,     0.000,     0.000,   2
 31271,'HL',1,   2,   2,     6.730,     2.420,     0.000,     0.000,     0.000,     0.000,   4
 32201,'LD',1,   3,   1,    12.330,     4.060,     0.000,     0.000,     0.000,     0.000,   2
 32204,'LD',1,   3,   1,    97.960,    26.720,     0.000,     0.000,     0.000,     0.000,   2
 32404,'LD',1,   8,   1,    35.380,    14.920,     0.000,     0.000,     0.000,     0.000,   2
 32604,'LD',1,   6,   1,    77.370,    32.850,     0.000,     0.000,     0.000,     0.000,   2
 33004,'LD',1,   7,   1,    39.830,    12.630,     0.000,     0.000,     0.000,     0.000,   2
 33201,'DM',1,  10,   2,    24.220,     8.000,     0.000,     0.000,     0.000,     0.000,   5
 33801,'DM',1,   8,   2,    11.730,     3.900,     0.000,     0.000,     0.000,     0.000,   5
 34001,'LD',1,   5,   1,     2.570,     0.440,     0.000,     0.000,     0.000,     0.000,   2
 34201,'DM',1,   1,   2,    22.420,     7.400,     0.000,     0.000,     0.000,     0.000,   5
 34201,'LD',1,   1,   1,    10.850,     1.790,     0.000,     0.000,     0.000,     0.000,   2
 34301,'DM',1,   1,   2,    23.750,     7.800,     0.000,     0.000,     0.000,     0.000,   5
 35004,'LD',1,   9,   1,    14.300,     4.480,     0.000,     0.000,     0.000,     0.000,   2
 35074,'HL',1,   9,   1,     8.100,     2.910,     0.000,     0.000,     0.000,     0.000,   3
 35404,'LD',1,   7,   1,    83.140,    31.780,     0.000,     0.000,     0.000,     0.000,   2
 35604,'LD',1,  10,   1,    29.750,     8.560,     0.000,     0.000,     0.000,     0.000,   2
 35771,'HL',1,   3,   1,    11.950,     4.300,     0.000,     0.000,     0.000,     0.000,   1
 35804,'LD',1,   9,   1,    72.880,    35.650,     0.000,     0.000,     0.000,     0.000,   2
 36001,'LD',1,   3,   1,    21.760,     9.720,     0.000,     0.000,     0.000,     0.000,   2
 37501,'DM',1,   1,   2,     6.180,     2.000,     0.000,     0.000,     0.000,     0.000,   5
 37501,'LD',1,   1,   1,     6.910,     2.270,     0.000,     0.000,     0.000,     0.000,   2
 37601,'LD',1,   2,   1,    34.360,     8.100,     0.000,     0.000,     0.000,     0.000,   2
 37602,'DM',1,   2,   2,     5.000,     1.600,     0.000,     0.000,     0.000,     0.000,   5
 37602,'MI',0,   2,   2,     5.440,     1.630,     0.000,     0.000,     0.000,     0.000,   5
 38001,'LD',1,   3,   1,     9.800,     3.220,     0.000,     0.000,     0.000,     0.000,   2
 38004,'LD',1,   3,   1,    32.320,    10.590,     0.000,     0.000,     0.000,     0.000,   2
 38204,'LD',1,  10,   1,    44.990,    17.310,     0.000,     0.000,     0.000,     0.000,   2
 38601,'LD',1,   1,   1,     8.290,     2.140,     0.000,     0.000,     0.000,     0.000,   2
 38701,'LD',1,   1,   1,     8.290,     2.140,     0.000,     0.000,     0.000,     0.000,   2
 38804,'LD',1,   3,   1,     7.970,     4.690,     0.000,     0.000,     0.000,     0.000,   2
 39471,'HL',1,   4,   1,    19.170,     6.900,     0.000,     0.000,     0.000,     0.000,   3
 39472,'HL',1,   7,   1,    19.170,     6.900,     0.000,     0.000,     0.000,     0.000,   3
 39473,'HL',1,   4,   1,    19.170,     6.900,     0.000,     0.000,     0.000,     0.000,   3
 39601,'LD',1,   3,   1,    21.670,     7.130,     0.000,     0.000,     0.000,     0.000,   2
 39672,'HL',0,   3,   1,     3.000,     1.080,     0.000,     0.000,     0.000,     0.000,   3
 39675,'HL',0,   3,   1,     5.000,     1.800,     0.000,     0.000,     0.000,     0.000,   3
 39801,'DM',1,   7,   2,    25.650,     8.400,     0.000,     0.000,     0.000,     0.000,   5
 40001,'LD',1,   9,   1,    15.520,     4.280,     0.000,     0.000,     0.000,     0.000,   2
 40004,'LD',1,   9,   1,    37.990,    14.860,     0.000,     0.000,     0.000,     0.000,   2
 40204,'LD',1,   3,   1,    23.740,     7.800,     0.000,     0.000,     0.000,     0.000,   2
 40404,'LD',1,   9,   1,    34.880,     8.660,     0.000,     0.000,     0.000,     0.000,   2
 40601,'LD',1,  10,   1,     3.000,     0.960,     0.000,     0.000,     0.000,     0.000,   2
 40602,'DM',1,  10,   2,     7.600,     2.500,     0.000,     0.000,     0.000,     0.000,   5
 40604,'LD',1,  10,   1,    21.350,     6.420,     0.000,     0.000,     0.000,     0.000,   2
 40801,'LD',1,   8,   1,    18.500,     6.090,     0.000,     0.000,     0.000,     0.000,   2
 42004,'LD',1,   8,   1,    47.400,    14.660,     0.000,     0.000,     0.000,     0.000,   2
 42102,'DM',1,   1,   2,     7.220,     2.400,     0.000,     0.000,     0.000,     0.000,   5
 42102,'LD',1,   1,   1,    16.800,     5.520,     0.000,     0.000,     0.000,     0.000,   2
 42204,'LD',1,  10,   1,    76.400,    24.400,     0.000,     0.000,     0.000,     0.000,   2
 42604,'LD',1,   7,   1,    30.500,    10.030,     0.000,     0.000,     0.000,     0.000,   2
 42802,'DM',1,   1,   2,    26.000,     8.500,     0.000,     0.000,     0.000,     0.000,   5
 43604,'LD',1,   7,   1,    28.100,     9.230,     0.000,     0.000,     0.000,     0.000,   2
 44001,'LD',1,   1,   1,    14.840,     4.980,     0.000,     0.000,     0.000,     0.000,   2
 44671,'HL',0,   2,   1,     5.500,     1.980,     0.000,     0.000,     0.000,     0.000,   3
 44672,'HL',0,   2,   1,     5.500,     1.980,     0.000,     0.000,     0.000,     0.000,   3
 44673,'HL',0,   2,   1,    12.990,     4.670,     0.000,     0.000,     0.000,     0.000,   3
 44804,'LD',1,   8,   1,    48.310,    14.760,     0.000,     0.000,     0.000,     0.000,   2
 44901,'DM',1,   1,   2,    20.900,     6.900,     0.000,     0.000,     0.000,     0.000,   5
 44901,'LD',1,   1,   1,     8.840,     2.540,     0.000,     0.000,     0.000,     0.000,   2
 45001,'DM',1,  10,   2,    54.620,    17.100,     0.000,     0.000,     0.000,     0.000,   5
 45101,'LD',1,   1,   1,    16.050,     3.210,     0.000,     0.000,     0.000,     0.000,   2
 46210,'DM',1,   2,   2,    24.000,     7.900,     0.000,     0.000,     0.000,     0.000,   5
 46214,'DM',1,   2,   2,    26.000,     8.500,     0.000,     0.000,     0.000,     0.000,   5
 46224,'DM',1,   2,   2,    31.000,    10.190,     0.000,     0.000,     0.000,     0.000,   5
 46501,'LD',1,   1,   1,    10.950,     3.600,     0.000,     0.000,     0.000,     0.000,   2
 46804,'LD',1,   7,   1,    22.360,     7.600,     0.000,     0.000,     0.000,     0.000,   2
 47004,'LD',1,   9,   1,    36.060,    12.200,     0.000,     0.000,     0.000,     0.000,   2
 47402,'DM',1,   2,   2,    15.200,     5.000,     0.000,     0.000,     0.000,     0.000,   5
 47601,'LD',1,   3,   1,     5.560,     1.830,     0.000,     0.000,     0.000,     0.000,   2
 49474,'HL',1,   5,   1,    11.260,     4.050,     0.000,     0.000,     0.000,     0.000,   3
 49604,'LD',1,  10,   1,    67.320,    25.970,     0.000,     0.000,     0.000,     0.000,   2
 49804,'LD',1,   9,   1,    65.810,    24.170,     0.000,     0.000,     0.000,     0.000,   2
 50004,'LD',1,   9,   1,    29.180,     9.970,     0.000,     0.000,     0.000,     0.000,   2
 50276,'HL',1,   2,   1,     9.990,     3.590,     0.000,     0.000,     0.000,     0.000,   3
 50301,'LD',1,   1,   1,    13.910,     4.570,     0.000,     0.000,     0.000,     0.000,   2
 50573,'HL',1,   7,   2,     0.850,     0.300,     0.000,     0.000,     0.000,     0.000,   4
 50574,'HL',1,   7,   2,     0.850,     0.300,     0.000,     0.000,     0.000,     0.000,   4
 50604,'LD',1,   6,   1,    25.790,     8.760,     0.000,     0.000,     0.000,     0.000,   2
 50901,'LD',1,   7,   1,    12.840,     3.530,     0.000,     0.000,     0.000,     0.000,   2
 51301,'LD',1,   1,   1,    10.790,     2.570,     0.000,     0.000,     0.000,     0.000,   2
 51471,'HL',0,   7,   1,     3.000,     1.080,     0.000,     0.000,     0.000,     0.000,   3
 51472,'HL',0,   7,   1,     3.000,     1.080,     0.000,     0.000,     0.000,     0.000,   3
 51473,'HL',1,   7,   1,    14.940,     5.370,     0.000,     0.000,     0.000,     0.000,   3
 51474,'HL',0,   7,   1,    14.940,     5.370,     0.000,     0.000,     0.000,     0.000,   3
 51771,'HL',1,   4,   2,     5.390,     1.940,     0.000,     0.000,     0.000,     0.000,   4
 51801,'LD',1,   3,   1,    20.870,     5.930,     0.000,     0.000,     0.000,     0.000,   2
 51804,'LD',1,   3,   1,    56.090,    15.940,     0.000,     0.000,     0.000,     0.000,   2
 52204,'LD',1,   4,   1,    12.370,     3.400,     0.000,     0.000,     0.000,     0.000,   2
 52301,'LD',1,   1,   1,    22.360,     6.420,     0.000,     0.000,     0.000,     0.000,   2
 52476,'HL',0,   9,   1,     0.300,     0.100,     0.000,     0.000,     0.000,     0.000,   3
 52604,'LD',1,   7,   1,    26.750,     9.880,     0.000,     0.000,     0.000,     0.000,   2
...
0 / END OF LOAD DATA, BEGIN GENERATOR DATA
 10204,'1 ',     0.893,    -0.280,    -0.280,    -0.280,1.04000,     0,     2.685,   0.00000,   0.25400,   0.00000,   0.06000,1.00000,1,  100.0,     2.550,     0.000,   4,1.0000
 10204,'2 ',     0.231,    -0.070,    -0.070,    -0.070,1.04000,     0,     0.895,   0.00000,   0.25400,   0.00000,   0.20000,1.00000,1,  100.0,     0.660,     0.000,   4,1.0000
 10204,'3 ',     2.625,    -0.820,    -0.820,    -0.820,1.04000,     0,     8.625,   0.00000, 999.00000,   0.00000,   0.20000,1.00000,1,  100.0,     7.500,     0.000,   2,1.0000
 10271,'1 ',    21.000,    15.000,    15.000,    -7.000,1.07500,  1021,    34.000,   0.00000,   0.26000,   0.00000,   0.00000,1.00000,1,   15.0,    21.000,     5.000,   3,1.0000
 10272,'2 ',    21.000,    15.000,    15.000,    -7.000,1.07500,  1021,    34.000,   0.00000,   0.26000,   0.00000,   0.00000,1.00000,1,   15.0,    22.000,     5.000,   3,1.0000
 10273,'3 ',    21.000,    15.000,    15.000,    -7.000,1.07500,  1021,    34.000,   0.00000,   0.26000,   0.00000,   0.00000,1.00000,1,   15.0,    19.000,     5.000,   3,1.0000
 10274,'4 ',    21.000,    15.000,    15.000,    -7.000,1.07500,  1021,    34.000,   0.00000,   0.25000,   0.00000,   0.00000,1.00000,1,   15.0,    24.000,     5.000,   3,1.0000
 10471,'1 ',   125.000,   104.268,   153.000,   -53.000,1.07500,  1042,   318.800,   0.00000,   0.26400,   0.00000,   0.00000,1.00000,0,  153.0,   270.000,    40.000,   3,1.0000
 10472,'11',    90.000,     0.000,    60.000,   -30.000,1.07500,  1072,   100.900,   0.00000,   0.14700,   0.00000,   0.00000,1.00000,0,   60.0,    90.000,    20.000,   3,1.0000
 10473,'12',    90.000,     0.000,    60.000,   -30.000,1.07500,  1052,   100.900,   0.00000,   0.14700,   0.00000,   0.00000,1.00000,0,   60.0,    90.000,    20.000,   3,1.0000
 10474,'14',    90.000,     0.000,    60.000,   -30.000,1.07500,  1072,   100.900,   0.00000,   0.14700,   0.00000,   0.00000,1.00000,0,   60.0,    90.000,    20.000,   3,1.0000
 10475,'5 ',    52.300,     0.000,    32.600,   -22.700,1.07500,  1041,    62.000,   0.00000,   0.25400,   0.00000,   0.00000,1.00000,0,   32.6,    52.300,     1.200,   3,1.0000
 10602,'1 ',     0.420,    -0.130,    -0.130,    -0.130,1.04000,     0,     1.380,   0.00000,   0.25400,   0.00000,   0.20000,1.00000,1,  100.0,     1.200,     0.000,   4,1.0000
 10602,'2 ',     1.680,    -0.520,    -0.520,    -0.520,1.04000,     0,     5.520,   0.00000,   0.25400,   0.00000,   0.20000,1.00000,1,  100.0,     4.800,     0.000,   4,1.0000
 10602,'3 ',     1.750,    -0.550,    -0.550,    -0.550,1.04000,     0,     5.750,   0.00000,   0.25400,   0.00000,   0.20000,1.00000,1,  100.0,     5.000,     0.000,   4,1.0000
 10602,'5 ',     1.890,    -2.300,    -1.770,    -2.300,1.04000,     0,     7.050,   0.00000,   0.25400,   0.00000,   0.05640,1.00000,1,  100.0,     5.400,     0.000,   2,1.0000
 11204,'1 ',     8.820,    -2.750,    -2.750,    -2.750,1.04000,     0,    29.000,   0.00000,   0.25400,   0.00000,   0.20000,1.00000,1,  100.0,    25.200,     0.000,   2,1.0000
 11371,'1 ',    17.850,   -11.900,    11.900,   -11.900,1.07500,  1131,    58.650,   0.00000,   0.25400,   0.00000,   0.00000,1.00000,1,  100.0,    51.000,     0.000,   4,1.0000
 12371,'1 ',    14.700,     9.700,     9.700,    -9.700,1.07500,  1231,    42.000,   0.00000,   0.25400,   0.00000,   0.00000,1.00000,1,  100.0,    42.000,     0.000,   4,1.0000
 12571,'1 ',     6.807,     4.490,     4.490,    -4.490,1.07500,  1251,    23.925,   0.00000,   0.25400,   0.00000,   0.00000,1.00000,1,  100.0,    19.450,     0.000,   4,1.0000
 12804,'1 ',     2.975,    -0.930,    -0.930,    -0.930,1.04000,     0,     8.950,   0.00000,   0.25400,   0.00000,   0.20000,1.00000,1,  100.0,     8.500,     0.000,   2,1.0000
 12804,'2 ',     6.842,    -2.140,    -2.140,    -2.140,1.04000,     0,    20.585,   0.00000,   0.25400,   0.00000,   0.20000,1.00000,1,  100.0,    19.550,     0.000,   2,1.0000
 13404,'1 ',     0.231,    -0.070,    -0.070,    -0.070,1.04000,     0,     0.759,   0.00000,   0.25400,   0.00000,   0.20000,1.00000,1,  100.0,     0.660,     0.000,   4,1.0000
 13404,'2 ',     0.893,    -0.280,    -0.280,    -0.280,1.04000,     0,     2.685,   0.00000,   0.25400,   0.00000,   0.20000,1.00000,1,  100.0,     2.550,     0.000,   2,1.0000
 13404,'3 ',     4.165,    -1.300,    -1.300,    -1.300,1.04000,     0,    13.685,   0.00000,   0.25400,   0.00000,   0.20000,1.00000,1,  100.0,    11.900,     0.000,   2,1.0000
 13404,'4 ',     5.250,    -1.640,    -1.640,    -1.640,1.04000,     0,    17.170,   0.00000,   0.25400,   0.00000,   0.20000,1.00000,1,  100.0,    15.000,     0.000,   2,1.0000
 13404,'5 ',     2.100,    -0.660,    -0.660,    -0.660,1.04000,     0,     6.900,   0.00000,   0.25400,   0.00000,   0.20000,1.00000,1,  100.0,     6.000,     0.000,   2,1.0000
 13404,'6 ',     2.678,    -0.840,    -0.840,    -0.840,1.04000,     0,     8.055,   0.00000,   0.25400,   0.00000,   0.20000,1.00000,1,  100.0,     7.650,     0.000,   2,1.0000
 14002,'3 ',     2.257,    -0.700,    -0.700,    -0.700,1.04000,     0,     7.418,   0.00000,   0.25400,   0.00000,   0.10000,1.00000,1,  100.0,     6.450,     0.000,   3,1.0000
 14404,'1 ',     1.575,    -0.490,    -0.490,    -0.490,1.04000,     0,     5.151,   0.00000,   0.25400,   0.00000,   0.20000,1.00000,1,  100.0,     4.500,     0.000,   2,1.0000
 14604,'1 ',     4.800,     0.000,     1.000,    -1.000,1.05000,     0,     7.000,   0.00000,   0.14800,   0.00000,   0.10000,1.00000,0,    1.0,     4.800,     0.000,   5,1.0000
 14804,'1 ',     0.595,    -0.190,    -0.190,    -0.190,1.04000,     0,     1.790,   0.00000,   0.25400,   0.00000,   0.20000,1.00000,1,  100.0,     1.700,     0.000,   4,1.0000
 16371,'1 ',     1.190,    -0.770,     0.490,    -0.770,1.01500, 16302,     3.580,   0.00000,   0.25400,   0.00000,   0.10000,1.00000,1,  100.0,     3.400,     0.000,   1,1.0000
 16372,'2 ',     1.190,    -0.770,     0.490,    -0.770,1.00000,     0,     3.580,   0.00000,   0.25400,   0.00000,   0.10000,1.00000,1,  100.0,     3.400,     0.000,   1,1.0000
 16373,'3 ',     2.380,    -0.810,     0.980,    -1.610,1.01500, 16302,     7.160,   0.00000,   0.25400,   0.00000,   0.10000,1.00000,1,  100.0,     6.800,     0.000,   1,1.0000
 16374,'4 ',     2.660,    -0.810,     1.760,    -1.760,1.01500, 16302,     8.055,   0.00000,   0.25400,   0.00000,   0.10000,1.00000,1,  100.0,     7.600,     0.000,   1,1.0000
 16375,'5 ',     1.487,    -0.810,     0.980,    -0.980,1.01500, 16302,     4.475,   0.00000,   0.25400,   0.00000,   0.10000,1.00000,1,  100.0,     4.250,     0.000,   1,1.0000
 16376,'6 ',     1.732,    -0.540,    -0.540,    -0.540,1.00000,     0,     5.370,   0.00000,   0.25400,   0.00000,   0.10000,1.00000,1,  100.0,     4.950,     0.000,   4,1.0000
 16377,'1 ',     3.150,     2.100,     2.100,    -2.100,1.07500,  1631,     9.570,   0.00000,   0.25400,   0.00000,   0.00000,1.00000,1,  100.0,     9.000,     0.000,   1,1.0000
 16378,'1 ',     0.559,    -0.530,    -0.530,    -0.680,1.04000,     0,     1.790,   0.00000,   0.25400,   0.00000,   0.00000,1.00000,1,  100.0,     1.598,     0.000,   1,1.0000
 16571,'1 ',    13.230,     7.354,     8.770,    -8.770,1.07500,  1651,    39.000,   0.00000,   0.25400,   0.00000,   0.00000,1.00000,1,  100.0,    37.800,     0.000,   4,1.0000
 16602,'1 ',     1.190,    -0.370,    -0.370,    -0.370,1.04000,     0,     3.580,   0.00000,   0.25400,   0.00000,   0.06000,1.00000,1,  100.0,     3.400,     0.000,   4,1.0000
 16604,'2 ',     6.545,    -2.040,    -2.040,    -2.040,1.00000,     0,    19.690,   0.00000,   0.25400,   0.00000,   0.20000,1.00000,1,  100.0,    18.700,     0.000,   4,1.0000
 16604,'3 ',     0.735,    -0.230,    -0.230,    -0.230,1.00000,     0,     2.300,   0.00000,   0.25400,   0.00000,   0.00000,1.00000,1,  100.0,     2.100,     0.000,   2,1.0000
 16873,'3 ',     8.000,     7.000,     7.000,    -1.000,1.07500,  1681,    11.500,   0.00000,   0.31700,   0.00000,   0.00000,1.00000,1,    7.0,     8.000,     2.000,   3,1.0000
 17004,'5 ',     0.693,    -0.220,    -0.220,    -0.220,1.04000,     0,     3.100,   0.00000,   0.25400,   0.00000,   0.20000,1.00000,1,  100.0,     1.980,     0.000,   4,1.0000
 17004,'6 ',     0.385,    -0.120,    -0.120,    -0.120,1.04000,     0,     1.500,   0.00000,   0.25400,   0.00000,   0.20000,1.00000,1,  100.0,     1.100,     0.000,   4,1.0000
 17004,'7 ',     1.190,    -0.370,    -0.370,    -0.370,1.04000,     0,     3.580,   0.00000,   0.25400,   0.00000,   0.20000,1.00000,1,  100.0,     3.400,     0.000,   2,1.0000
 17073,'3 ',    22.500,    -2.172,     7.000,   -10.000,1.05000,  1701,    30.000,   0.00000,   0.25400,   0.00000,   0.00000,1.00000,1,    7.0,    22.500,     5.000,   3,1.0000
 17074,'4 ',    22.500,    -2.172,     7.000,   -10.000,1.05000,  1701,    30.000,   0.00000,   0.25400,   0.00000,   0.00000,1.00000,1,    7.0,    22.500,     5.000,   3,1.0000
 17671,'1 ',    10.000,    -2.172,     7.000,    -3.000,1.05000,  1701,    12.500,   0.00000,   0.19000,   0.00000,   0.00000,1.00000,1,    7.0,    10.000,     3.000,   3,1.0000
 17672,'2 ',    10.000,    -2.172,     7.000,    -3.000,1.05000,  1701,    12.500,   0.00000,   0.19000,   0.00000,   0.00000,1.00000,1,    7.0,    10.000,     3.000,   3,1.0000
 17771,'1 ',    14.429,     9.590,     9.590,    -9.590,1.07500,  2771,    42.925,   0.00000,   0.25400,   0.00000,   0.00000,1.00000,1,  100.0,    41.225,     0.000,   4,1.0000
 18404,'1 ',     1.747,    -0.550,    -0.550,    -0.550,1.04000,     0,     5.739,   0.00000,   0.25400,   0.00000,   0.20000,1.00000,1,  100.0,     4.990,     0.000,   2,1.0000
 18802,'1 ',     1.050,    -0.330,    -0.330,    -0.330,1.04000,     0,     3.125,   0.00000,   0.25400,   0.00000,   0.07962,1.00000,1,  100.0,     3.000,     0.000,   1,1.0000
 19071,'1 ',     0.893,    -0.280,    -0.280,    -0.280,1.04000,     0,     2.685,   0.00000,   0.25400,   0.00000,   0.06000,1.00000,1,  100.0,     2.550,     0.000,   4,1.0000
 19071,'2 ',     0.595,    -0.730,    -0.560,    -0.730,1.04000,     0,     1.790,   0.00000,   0.25400,   0.00000,   0.06000,1.00000,1,  100.0,     1.700,     0.000,   4,1.0000
 19072,'1 ',     1.750,    -0.550,    -0.550,    -0.550,1.04000,     0,     7.050,   0.00000,   0.25400,   0.00000,   0.05640,1.00000,1,  100.0,     4.999,     0.000,   4,1.0000
 19072,'2 ',     1.575,    -0.490,    -0.490,    -0.490,1.04000,     0,     4.700,   0.00000,   0.25400,   0.00000,   0.05647,1.00000,1,  100.0,     4.500,     0.000,   4,1.0000
 19073,'1 ',     7.350,    -6.900,    -6.900,    -8.950,1.04000,     0,    21.875,   0.00000,   0.25400,   0.00000,   0.07962,1.00000,1,  100.0,    21.000,     0.000,   4,1.0000
 19371,'1 ',    12.180,     8.120,     8.120,    -8.120,1.07500,  1931,    36.500,   0.00000,   0.25400,   0.00000,   0.00000,1.00000,1,  100.0,    34.800,     0.000,   4,1.0000
 19471,'1 ',   110.000,    75.000,    75.000,   -50.000,1.07500,  1941,   153.000,   0.00000,   0.18800,   0.00000,   0.00000,1.00000,1,   75.0,   130.000,    60.000,   4,1.0000
 19771,'1 ',    14.875,     5.950,     5.950,    -9.940,1.07500,  1971,    45.000,   0.00000,   0.25400,   0.00000,   0.00000,1.00000,1,  100.0,    42.500,     0.000,   4,1.0000
 21004,'1 ',     2.625,    -0.820,    -0.820,    -0.820,1.04000,     0,     8.625,   0.00000,   0.25400,   0.00000,   0.20000,1.00000,1,  100.0,     7.500,     0.000,   4,1.0000
 21004,'2 ',     0.175,    -0.050,    -0.050,    -0.050,1.04000,     0,     0.895,   0.00000,   0.25400,   0.00000,   0.20000,1.00000,1,  100.0,     0.500,     0.000,   2,1.0000
 21402,'1 ',     0.595,    -0.560,    -0.560,    -0.730,1.04000,     0,     1.790,   0.00000,   0.25400,   0.00000,   0.06000,1.00000,1,  100.0,     1.700,     0.000,   1,1.0000
 21802,'1 ',     0.595,    -0.190,    -0.190,    -0.190,1.04000,     0,     1.790,   0.00000,   0.25400,   0.00000,   0.06000,1.00000,1,  100.0,     1.700,     0.000,   4,1.0000
 21802,'2 ',     1.050,    -0.990,    -0.990,    -1.280,1.04000,     0,     3.125,   0.00000,   0.25400,   0.00000,   0.07962,1.00000,1,  100.0,     3.000,     0.000,   1,1.0000
 22204,'1 ',     1.617,    -0.500,    -0.500,    -0.500,1.04000,     0,     5.313,   0.00000,   0.25400,   0.00000,   0.20000,1.00000,1,  100.0,     4.620,     0.000,   3,1.0000
 22204,'2 ',     2.079,    -0.650,    -0.650,    -0.650,1.04000,     0,     6.831,   0.00000,   0.25400,   0.00000,   0.20000,1.00000,1,  100.0,     5.940,     0.000,   3,1.0000
 22204,'3 ',     2.082,    -0.650,    -0.650,    -0.650,1.04000,     0,     6.868,   0.00000,   0.25400,   0.00000,   0.20000,1.00000,1,  100.0,     5.950,     0.000,   4,1.0000
 22204,'4 ',     1.487,    -0.460,    -0.460,    -0.460,1.04000,     0,     5.000,   0.00000,   0.20000,   0.00000,   0.20000,1.00000,1,  100.0,     4.250,     0.000,   4,1.0000
 22371,'1 ',    20.825,     8.330,     8.330,   -13.880,1.07500,  2231,    62.650,   0.00000,   0.25400,   0.00000,   0.00000,1.00000,1,  100.0,    59.500,     0.000,   4,1.0000
 22404,'1 ',     0.893,    -0.280,    -0.280,    -0.280,1.04000,     0,     2.685,   0.00000,   0.20000,   0.00000,   0.20000,1.00000,1,  100.0,     2.550,     0.000,   4,1.0000
 22404,'2 ',     1.487,    -0.460,    -0.460,    -0.460,1.04000,     0,     5.000,   0.00000,   0.20000,   0.00000,   0.20000,1.00000,1,  100.0,     4.250,     0.000,   4,1.0000
 22671,'1 ',    52.100,     0.000,    32.600,   -22.700,1.07500,  2261,    62.000,   0.00000,   0.25400,   0.00000,   0.00000,1.00000,0,   32.6,    52.100,     1.200,   3,1.0000
 22672,'2 ',    52.100,     0.000,    32.600,   -22.700,1.07500,  2261,    62.000,   0.00000,   0.25400,   0.00000,   0.00000,1.00000,0,   32.6,    52.100,     1.200,   3,1.0000
 22802,'1 ',     0.893,    -0.840,    -0.840,    -1.090,1.04000,     0,     2.685,   0.00000,   0.25400,   0.00000,   0.06000,1.00000,1,  100.0,     2.550,     0.000,   1,1.0000
 26702,'1 ',    11.034,     7.350,     7.350,    -7.350,1.07500,  2671,    32.500,   0.00000,   0.25400,   0.00000,   0.00000,1.00000,1,  100.0,    31.525,     0.000,   4,1.0000
 26703,'1 ',     9.345,     6.230,     6.230,    -6.230,1.07500,  2671,    26.700,   0.00000,   0.25400,   0.00000,   0.00000,1.00000,1,  100.0,    26.700,     0.000,   4,1.0000
 27204,'5 ',     4.000,     0.000,     1.000,    -1.000,1.04000,     0,     5.000,   0.00000,   0.30000,   0.00000,   0.10000,1.00000,0,    1.0,     4.000,     0.000,   3,1.0000
 27371,'1 ',     4.480,     1.820,     1.820,    -3.010,1.07500,  2731,    15.215,   0.00000,   0.25400,   0.00000,   0.00000,1.00000,1,  100.0,    12.800,     0.000,   4,1.0000
 27372,'2 ',     5.950,     2.380,     2.380,    -3.990,1.07500,  2731,    18.750,   0.00000,   0.25400,   0.00000,   0.00000,1.00000,1,  100.0,    17.000,     0.000,   4,1.0000
 27402,'1 ',     1.487,    -1.400,    -1.400,    -1.810,1.04000,     0,     4.475,   0.00000,   0.25400,   0.00000,   0.06000,1.00000,1,  100.0,     4.250,     0.000,   1,1.0000
 27471,'1 ',    25.000,    42.000,    42.000,    -3.000,1.07500,  2741,    75.000,   0.00000,   0.20300,   0.00000,   0.00000,1.00000,1,   42.0,    57.000,    25.000,   3,1.0000
 27472,'2 ',    57.000,     0.000,    40.000,    -3.000,1.07500,  2741,    75.000,   0.00000,   0.20300,   0.00000,   0.00000,1.00000,0,   40.0,    57.000,    25.000,   3,1.0000
 27473,'3 ',    91.000,    82.000,    82.000,   -48.000,1.07500,  2742,   150.000,   0.00000,   0.18500,   0.00000,   0.00000,1.00000,1,   82.0,   116.000,    30.000,   3,1.0000
 27804,'1 ',     1.155,    -0.360,    -0.360,    -0.360,1.04000,     0,     3.795,   0.00000,   0.25400,   0.00000,   0.20000,1.00000,1,  100.0,     3.300,     0.000,   4,1.0000
 27804,'2 ',     0.236,    -0.070,    -0.070,    -0.070,1.04000,     0,     0.776,   0.00000,   0.25400,   0.00000,   0.20000,1.00000,1,  100.0,     0.675,     0.000,   2,1.0000
 28002,'1 ',     5.250,    -2.170,    -2.170,    -2.170,1.00000,     0,    17.250,   0.00000,   0.25400,   0.00000,   0.10000,1.00000,1,  100.0,    15.000,     0.000,   4,1.0000
 28571,'1 ',   360.000,   110.965,   282.100,  -196.800,1.07500,  1062,   535.500,   0.00000,   0.24500,   0.00000,   0.00000,1.00000,1,  282.1,   450.470,   110.100,   4,1.0000
 28804,'2 ',     8.855,    -2.760,    -2.760,    -2.760,1.04000,     0,    28.578,   0.00000,   0.20000,   0.00000,   0.20000,1.00000,1,  100.0,    25.300,     0.000,   4,1.0000
 28814,'1 ',     3.675,    -1.150,    -1.150,    -1.150,1.04000,     0,    12.019,   0.00000,   0.25400,   0.00000,   0.20000,1.00000,1,  100.0,    10.500,     0.000,   2,1.0000
 29671,'ST',   120.000,    28.212,    90.000,   -47.000,1.07500,  2562,   150.000,   0.00000,   0.18800,   0.00000,   0.00000,1.00000,1,   90.0,   120.000,    40.000,   4,1.0000
 29672,'CT',   230.000,    54.230,   173.000,  -106.000,1.07500,  2562,   288.000,   0.00000,   0.17900,   0.00000,   0.00000,1.00000,1,  173.0,   230.000,   138.000,   4,1.0000
 29673,'2 ',   400.000,    78.054,   249.000,  -100.000,1.07500,  2562,   473.000,   0.00500,   0.25600,   0.00000,   0.00000,1.00000,1,  249.0,   400.000,   257.000,   4,1.0000
 30671,'1 ',    15.000,    13.000,    13.000,    -4.000,1.07500,  3061,    21.400,   0.00000,   0.20300,   0.00000,   0.00000,1.00000,1,   13.0,    15.000,     4.000,   3,1.0000
 30671,'2 ',     4.000,     3.000,     3.000,    -1.000,1.07500,  3061,     5.700,   0.00000,   0.17800,   0.00000,   0.00000,1.00000,1,   13.0,     4.000,     1.000,   3,1.0000
 31002,'1 ',     0.893,    -0.280,    -0.280,    -0.280,1.04000,     0,     2.685,   0.00000,   0.25400,   0.00000,   0.06000,1.00000,1,  100.0,     2.550,     0.000,   1,1.0000
 31004,'1 ',     0.893,    -0.280,    -0.280,    -0.280,1.04000,     0,     2.685,   0.00000,   0.25400,   0.00000,   0.20000,1.00000,1,  100.0,     2.550,     0.000,   2,1.0000
 31271,'1 ',   400.000,   107.627,   200.000,  -114.000,1.07500,  3122,   500.000,   0.00000,   0.27000,   0.00000,   0.00000,1.00000,1,  200.0,   409.900,   163.000,   4,1.0000
 32404,'1 ',     4.100,     0.000,     1.000,    -1.000,1.04000,     0,     4.800,   0.00000,   0.25000,   0.00000,   0.06000,1.00000,0,    1.0,     4.100,     0.000,   2,1.0000
 32604,'1 ',     7.500,     0.000,     1.000,    -1.000,1.05000,     0,     8.500,   0.00000,   0.14800,   0.00000,   0.10000,1.00000,0,    1.0,     7.500,     0.000,   5,1.0000
 33004,'1 ',     3.272,    -1.020,    -1.020,    -1.020,1.04000,     0,     9.845,   0.00000,   0.25400,   0.00000,   0.20000,1.00000,1,  100.0,     9.350,     0.000,   2,1.0000
 35002,'1 ',     1.750,    -1.640,    -1.640,    -2.130,1.04000,     0,     6.045,   0.00000,   0.25400,   0.00000,   0.06717,1.00000,1,  100.0,     5.000,     0.000,   2,1.0000
 35074,'4 ',    90.000,    60.000,    60.000,   -20.000,1.07500,  3501,   121.100,   0.00500,   0.23000,   0.00000,   0.00000,1.00000,1,   60.0,   100.000,    25.000,   3,1.0000
 35771,'1 ',   360.000,    77.311,   250.000,   -80.000,1.07500,  3572,   500.000,   0.00000,   0.22500,   0.00000,   0.00000,1.00000,1,  250.0,   442.960,   222.000,   1,1.0000
 35802,'1 ',     0.893,    -0.280,    -0.280,    -0.280,1.04000,     0,     2.685,   0.00000,   0.25400,   0.00000,   0.06000,1.00000,1,  100.0,     2.550,     0.000,   4,1.0000
 35802,'2 ',     0.893,    -0.280,    -0.280,    -0.280,1.04000,     0,     2.685,   0.00000,   0.25400,   0.00000,   0.06000,1.00000,1,  100.0,     2.550,     0.000,   4,1.0000
 35804,'1 ',     5.250,    -1.640,    -1.640,    -1.640,1.04000,     0,    17.250,   0.00000,   0.25400,   0.00000,   0.20000,1.00000,1,  100.0,    15.000,     0.000,   4,1.0000
 35804,'2 ',     1.743,    -0.540,    -0.540,    -0.540,1.04000,     0,     5.727,   0.00000,   0.25400,   0.00000,   0.20000,1.00000,1,  100.0,     4.980,     0.000,   4,1.0000
 35804,'3 ',     4.158,    -1.300,    -1.300,    -1.300,1.04000,     0,    13.662,   0.00000,   0.25400,   0.00000,   0.20000,1.00000,1,  100.0,    11.880,     0.000,   4,1.0000
 35804,'6 ',     1.785,    -0.560,    -0.560,    -0.560,1.04000,     0,     5.370,   0.00000,   0.25400,   0.00000,   0.20000,1.00000,1,  100.0,     5.100,     0.000,   2,1.0000
 38002,'1 ',     0.595,    -0.560,    -0.560,    -0.730,1.04000,     0,     1.790,   0.00000,   0.25400,   0.00000,   0.06000,1.00000,1,  100.0,     1.700,     0.000,   1,1.0000
 38204,'1 ',     3.675,    -1.150,    -1.150,    -1.150,1.04000,     0,    12.019,   0.00000,   0.25400,   0.00000,   0.20000,1.00000,1,  100.0,    10.500,     0.000,   4,1.0000
 38204,'2 ',     1.575,    -0.490,    -0.490,    -0.490,1.04000,     0,     5.151,   0.00000,   0.25400,   0.00000,   0.20000,1.00000,1,  100.0,     4.500,     0.000,   4,1.0000
 38804,'1 ',     5.250,    -1.640,    -1.640,    -1.640,1.04000,     0,    17.250,   0.00000,   0.25400,   0.00000,   0.20000,1.00000,1,  100.0,    15.000,     0.000,   2,1.0000
 39471,'1 ',   290.000,    70.667,   160.000,   -70.000,1.07500,  3934,   359.000,   0.00000,   0.19500,   0.00000,   0.00000,1.00000,1,  160.0,   302.500,   115.000,   3,1.0000
 39472,'2 ',   290.000,   103.747,   160.000,   -70.000,1.07500,  3954,   359.000,   0.00000,   0.19500,   0.00000,   0.00000,1.00000,1,  160.0,   302.500,   115.000,   3,1.0000
 39473,'3 ',   290.000,    70.667,   160.000,   -70.000,1.07500,  3944,   359.000,   0.00000,   0.19500,   0.00000,   0.00000,1.00000,1,  160.0,   302.500,   115.000,   3,1.0000
 39474,'4 ',     7.665,    -2.390,    -2.390,    -2.390,1.04000,     0,    22.725,   0.00000,   0.20000,   0.00000,   0.00000,1.00000,1,  100.0,    21.900,     0.000,   3,1.0000
 39672,'2 ',    30.000,     0.000,    15.000,     0.000,1.07500,  3961,    40.000,   0.00000,   0.15500,   0.00000,   0.00000,1.00000,0,   15.0,    30.000,    10.000,   3,1.0000
 39675,'GT',    90.000,     0.000,    60.000,   -19.000,1.07500,  3961,   100.900,   0.00000,   0.14700,   0.00000,   0.00000,1.00000,0,   60.0,    90.000,    60.000,   3,1.0000
 40204,'1 ',     7.000,    -2.190,    -2.190,    -2.190,1.04000,     0,    23.000,   0.00000,   0.25400,   0.00000,   0.20000,1.00000,1,  100.0,    20.000,     0.000,   4,1.0000
 40404,'1 ',     2.100,    -0.660,    -0.660,    -0.660,1.04000,     0,    10.000,   0.00000,   0.25400,   0.00000,   0.20000,1.00000,1,  100.0,     6.000,     0.000,   4,1.0000
 40771,'1 ',    18.515,     0.000,     0.000,     0.000,1.00000,     0,    59.800,   0.00000,   0.25400,   0.00000,   0.00000,1.00000,1,  100.0,    52.900,     0.000,   4,1.0000
...